Circuit: * C:\Users\gabri\Desktop\TCC - Projeto Pedaleira\Circuitos LT Spice\Pre Amp\pre_amplificador_gabriel_mendes.asc

.OP point found by inspection.

Date: Thu Aug 10 20:13:59 2023
Total elapsed time: 0.033 seconds.

tnom = 27
temp = 27
method = trap
totiter = 0
traniter = 0
tranpoints = 0
accept = 0
rejected = 0
matrix size = 7
fillins = 4
solver = Normal
Avg thread counts: 8.0/0.0/0.0/1.8
Matrix Compiler1:      26 opcodes
Matrix Compiler2:      44 opcodes
