Circuit: * C:\Users\gabri\Desktop\TCC - Projeto Pedaleira\Circuitos LT Spice\Filtro Passa Baixa\filtro_passa_baixa_gabriel_mendes.asc

.OP point found by inspection.

Date: Sun Nov 19 20:26:38 2023
Total elapsed time: 0.038 seconds.

tnom = 27
temp = 27
method = trap
totiter = 0
traniter = 0
tranpoints = 0
accept = 0
rejected = 0
matrix size = 17
fillins = 6
solver = Normal
Avg thread counts: 8.0/0.0/0.0/2.8
Matrix Compiler1:      76 opcodes
Matrix Compiler2:     114 opcodes
